15
Properties=species:S:1:pos:R:3:forces:R:3:molID:I:1 charge=0 multiplicity=1 energy=-10422.611471579945 dipoleMoment="-3.534132284686999 0.877377765042923 0.145266745573511" atomizationEnergy=2.6557910091893224 config_type=EMC Nmols=1 pbc="F F F"
C        0.30376449       0.11074094       0.40980744       3.52137677      -0.89079263      -0.55889128        0
O        2.05705643      -0.30152905       0.21493244      -7.41571520       1.78047628       0.84484679        0
O       -0.65408748      -0.05078006      -0.51229554       1.74951738       0.47900955       2.21621332        0
O       -0.28269750       0.61855197       1.49764645       0.74456322      -0.90600791      -2.08098999        0
C       -0.34507552      -0.51888007      -1.81550360       0.20623728      -0.77384591      -1.35959029        0
C        0.48242950       0.97411096       2.63498855       1.13075917       0.09728227       0.78123636        0
C       -1.64850354      -0.85632503      -2.53691745       0.05522562       0.25649340       0.35663604        0
H        0.19618949       0.24968193      -2.36829948       0.09584569       0.12223296       0.19145797        0
H        0.28900951      -1.40574610      -1.77038252       0.11014229       0.09995483       0.30612529        0
H        1.03283751       0.11775994       3.02428246       0.03075826      -0.08906233      -0.18940023        0
H        1.18941450       1.76803792       2.39697552       0.05522022      -0.05448634      -0.21261422        0
H       -1.43452156      -1.31698704      -3.49785566       0.18410742      -0.01127931      -0.14628346        0
H       -2.25273347      -1.55957711      -1.96779060      -0.01425888      -0.09200069       0.16279702        0
H       -2.24456859       0.03778094      -2.71576357      -0.05604528       0.09198636       0.01377854        0
H       -0.17902251       1.34076893       3.41913533      -0.39900926      -0.10666926      -0.32599643        0
15
Properties=species:S:1:pos:R:3:forces:R:3:molID:I:1 charge=0 multiplicity=1 energy=-10426.446311504951 dipoleMoment="-0.4671725258459436 -0.6344234661651805 -0.06131989775530728" atomizationEnergy=-1.179048915817455 config_type=EMC Nmols=1 pbc="F F F"
C        0.31601509       0.40396333      -0.03450396      -1.83066289       2.24894579       1.40742461        0
O        1.49520910       0.27910334      -0.11588496       0.80961559      -0.67300541      -0.53207746        0
O       -0.66989791      -0.50631666       0.05118004       1.45131309      -1.05230595      -0.52984301        0
O       -0.31587693       1.59603739       0.14358704      -0.63201607      -0.44111271       0.19764346        0
C       -0.11945692      -1.83987272      -0.18249196       1.28598581       0.62780282      -0.74577333        0
C        0.36824608       2.83571243       0.09428404      -0.23331677       0.40269372       0.40877908        0
C       -1.12186491      -2.87316060       0.01240904      -2.12276854       0.60860693      -0.00576754        0
H        0.47635907      -1.80259871      -1.12384796      -0.87966136      -0.29229762       0.30634818        0
H        0.59729308      -2.11866570       0.55873501       0.97034116       0.75126081       0.82526230        0
H        0.97348708       3.09153223       0.96326005      -0.44012836      -0.39388786       0.80933667        0
H        1.13554704       2.76136041      -0.63311797       0.37952183       0.39507161      -1.51754754        0
H       -0.79963994      -3.82964873       0.06886204       2.63091623      -3.08791995       0.18914651        0
H       -1.57277894      -2.82153058       0.97855806      -0.73688837       0.76833481       0.73135325        0
H       -1.84886897      -3.09321570      -0.71398693      -1.55319887       0.97799300      -1.28533552        0
H       -0.41366392       3.63155341      -0.03702196       0.90239903      -0.83685136      -0.25994072        0
15
Properties=species:S:1:pos:R:3:forces:R:3:molID:I:1 charge=0 multiplicity=1 energy=-10426.20065934568 dipoleMoment="-0.8666996688026231 0.10771189877498821 0.07852562009856784" atomizationEnergy=-0.933396756546246 config_type=EMC Nmols=1 pbc="F F F"
C        0.39111257       0.08778462       0.40088466       2.15504363      -0.58486342      -0.38892958        0
O        1.58863461      -0.19380139       0.26778266      -2.47487184       0.66869768       0.32387873        0
O       -0.56673944      -0.07373638      -0.52121836      -0.21949113       0.28878397       0.77117957        0
O       -0.19534943       0.59559560       1.48872364      -0.63289414      -0.01144988      -0.36185547        0
C       -0.25772741      -0.54183638      -1.82442629      -0.16559910      -0.10940686      -0.70070277        0
C        0.56977755       0.95115459       2.62606573       0.82715053      -0.06273826       0.22626533        0
C       -1.56115544      -0.87928140      -2.54584026      -1.86653501       3.39444452      -0.30220044        0
H        0.28353757       0.22672562      -2.37722230       0.12878751       0.09494679       0.08641336        0
H        0.37635759      -1.42870235      -1.77930534       0.06414504      -0.07001411       0.18131977        0
H        1.12018561       0.09480362       3.01535964       0.06983432      -0.10541676      -0.08817065        0
H        1.27676260       1.74508166       2.38805270       0.11243849       0.01397261      -0.15124091        0
H       -1.34717345      -1.33994341      -3.50677824       0.01048938       0.24147985      -0.24675245        0
H       -2.16538548      -1.58253336      -1.97671330      -0.19875853       0.19273692       0.15413816        0
H       -2.35451841       0.31077361      -2.78388429       2.54097420      -3.84749682       0.79144861        0
H       -0.09167442       1.31781256       3.41021276      -0.35261339      -0.10093806      -0.29475550        0
15
Properties=species:S:1:pos:R:3:forces:R:3:molID:I:1 charge=0 multiplicity=1 energy=-10426.661275086206 dipoleMoment="-1.7619576676965356 0.4798165982344598 0.0108984403193799" atomizationEnergy=-1.3940124970711467 config_type=EMC Nmols=1 pbc="F F F"
C        0.37079236       0.09497990       0.40235737       5.92546739      -1.48001163      -0.83050274        0
O        1.68806636      -0.21476410       0.25594535      -7.62610482       1.87329742       0.89564006        0
O       -0.58705962      -0.06654111      -0.51974565       0.51361813       0.33693931       1.21319078        0
O       -0.21566965       0.60279089       1.49019635      -0.06457379      -0.31277131      -0.89096557        0
C       -0.27804765      -0.53464109      -1.82295358       0.12866157      -0.58736514      -0.89433958        0
C        0.54945737       0.95834988       2.62753844       0.91769652      -0.01654346       0.39097764        0
C       -1.58147562      -0.87208611      -2.54436755       0.08786874       0.23683455       0.31887829        0
H        0.26321736       0.23392090      -2.37574959       0.11758804       0.12591523       0.11773434        0
H        0.35603735      -1.42150712      -1.77783263       0.10642661       0.04319329       0.24749139        0
H        1.09986532       0.10199890       3.01683235       0.05673380      -0.09824476      -0.12192079        0
H        1.25644231       1.75227690       2.38952541       0.09592299      -0.00964218      -0.17187758        0
H       -1.36749363      -1.33274806      -3.50530553       0.17068196      -0.01643801      -0.16435174        0
H       -2.18570566      -1.57533813      -1.97524059      -0.00885248      -0.08230568       0.17194353        0
H       -2.17754054       0.02201990      -2.72321367      -0.05040332       0.09285516       0.02399304        0
H       -0.11199465       1.32500792       3.41168547      -0.37217023      -0.10245921      -0.30628166        0
15
Properties=species:S:1:pos:R:3:forces:R:3:molID:I:1 charge=0 multiplicity=1 energy=-10426.090224721866 dipoleMoment="-0.2704187022379506 -0.13836498332324165 0.0032663183975114437" atomizationEnergy=-0.822962132730937 config_type=EMC Nmols=1 pbc="F F F"
C        0.27979711       0.17724535       0.39031258      -0.25150968      -5.16651638      -0.76152840        0
O        0.75628310       1.25669730       0.34533960      -0.33435642       1.01315076       0.20947222        0
O       -0.83293492      -0.39983866      -0.16936541       0.65993949       2.93542535       1.57787230        0
O        0.84090209      -1.00029171       0.87319660       2.36330833       2.42998364       1.28644035        0
C       -1.75231791       0.49987835      -0.79871839      -1.75867639      -1.30464454       1.47303614        0
C        2.16588616      -0.75576264       1.55370259      -1.15705382       3.06422748      -1.63814658        0
C       -1.56039488       0.23901834      -2.22589445      -0.46774208       2.48447607      -3.37814437        0
H       -2.76542497       0.07193734      -0.42288142       1.37246107       0.74168821      -0.95012012        0
H       -1.80771089       1.58214939      -0.51779538       0.99692299      -0.89334858       0.07817573        0
H        2.96384001      -0.46278167       0.77159858      -1.34111555      -0.36396496       1.22882046        0
H        2.04505205       0.09570535       2.34038949       0.30513024      -1.66338535      -1.37475022        0
H       -2.42680883       0.87280136      -2.61936045       0.62985293      -1.53060271      -0.60208299        0
H       -0.67628187       0.72717232      -2.79614043      -0.93191968      -0.60854393       1.63753795        0
H       -1.50868094      -0.83021867      -2.49308038      -0.70046115       0.50214149       0.13581497        0
H        2.37038016      -1.68998969       1.95265961       0.61583940      -1.63883792       1.07604505        0
